&share
 wrf_core = 'ARW',
 max_dom = 1,
 start_date = '2021-02-10_12:00:00', 
 end_date   = '2021-02-11_12:00:00', 
 interval_seconds = 3600,
 io_form_geogrid = 2,
 opt_output_from_geogrid_path = '/mnt/wrf-work/Build_WRF/ETNA_9KM/',
 debug_level = 0,
/

&geogrid
 parent_id         = 1,
 parent_grid_ratio = 1,
 i_parent_start    = 1,
 j_parent_start    = 1,
 e_we          = 100,
 e_sn          = 100,
 geog_data_res = '30s',
 dx = 9000,
 dy = 9000,
 map_proj =  'lambert',
 ref_lat   = 37.751,
 ref_lon   = 14.994,
 truelat1  = 37.751,
 truelat2  = 37.751,
 stand_lon = 14.994,
 geog_data_path = '/mnt/wrf-data/WPS_GEOG',
 opt_geogrid_tbl_path = '/mnt/wrf-work/Build_WRF/ETNA_9KM/',
 ref_x = 50.0,
 ref_y = 50.0,
/

&ungrib
 out_format = 'WPS',
 prefix = 'FILE',
/

&metgrid
 fg_name = 'FILE',
 io_form_metgrid = 2,
 opt_output_from_metgrid_path = '/mnt/wrf-work/Build_WRF/ETNA_9KM/',
 opt_metgrid_tbl_path = '/mnt/wrf-work/Build_WRF/ETNA_9KM/',
/

&mod_levs
 press_pa = 201300 , 200100 , 100000 ,
             95000 ,  90000 ,
             85000 ,  80000 ,
             75000 ,  70000 ,
             65000 ,  60000 ,
             55000 ,  50000 ,
             45000 ,  40000 ,
             35000 ,  30000 ,
             25000 ,  20000 ,
             15000 ,  10000 ,
              5000 ,   1000
 /


&domain_wizard
 grib_data_path = '/mnt/wrf-data/GRIBS/20210118-00',
 grib_vtable = 'Vtable.GFS',
 dwiz_name    =ETNA_9KM
 dwiz_desc    =
 dwiz_user_rect_x1 =1070
 dwiz_user_rect_y1 =275
 dwiz_user_rect_x2 =1124
 dwiz_user_rect_y2 =316
 dwiz_show_political =true
 dwiz_center_over_gmt =true
 dwiz_latlon_space_in_deg =10
 dwiz_latlon_linecolor =-8355712
 dwiz_map_scale_pct =12.5
 dwiz_map_vert_scrollbar_pos =0
 dwiz_map_horiz_scrollbar_pos =0
 dwiz_gridpt_dist_km =9.0
 dwiz_mpi_command =
 dwiz_tcvitals =null
 dwiz_bigmap =Y
/
