&time_control            
run_days                 = 0,
run_hours                = 24,
run_minutes              = 0,
run_seconds              = 0,
start_year = 2020,
start_month = 04,
start_day = 07,
start_hour = 00,
start_minute             = 00,
start_second             = 00,
end_year = 2020,
end_month = 04,
end_day = 08,
end_hour = 00,
end_minute               = 00,
end_second               = 00,
interval_seconds         = 3600,
input_from_file          = .true.,
history_interval         = 60,
history_outname          = '/home/colombo/DATI/WRFOUT/wrfout_ETNA9km_<date>',
frames_per_outfile       = 1000,
restart                  = .false.,
restart_interval         = 5000,
io_form_history          = 2,
io_form_restart          = 2,
io_form_input            = 2,
io_form_boundary         = 2,
auxinput1_inname                    = "met_em.d<domain>.<date>",
auxinput6_inname                    = 'wrfbiochemi_d01',
auxinput7_inname                    = 'wrffirechemi_d<domain>',
auxinput8_inname                    = 'wrfchemi_gocart_bg_d<domain>',
auxinput12_inname                   = 'wrf_chem_input',
auxinput13_inname                   = 'wrfchemv_d<domain>',
auxinput5_interval_m                = 86400,
auxinput7_interval_m                = 86400,
auxinput8_interval_m                = 86400,
auxinput13_interval_m               = 1440,
io_form_auxinput2 = 0,
io_form_auxinput5                   = 0,
io_form_auxinput6                   = 0,
io_form_auxinput7                   = 0,
io_form_auxinput8                   = 0,
io_form_auxinput12                  = 0,
io_form_auxinput13 = 0,
debug_level              = 0,
/

&domains                 
eta_levels               = 1.000, 0.9943, 0.9886, 0.983, 0.9774,
                0.9718, 0.9658, 0.9592, 0.952, 0.944, 
                0.935, 0.9248, 0.913, 0.8995, 0.8838, 
                0.8656, 0.8446, 0.8205, 0.7929, 0.7619, 
                0.7273, 0.6895, 0.6487, 0.6054, 0.5603, 
                0.514, 0.4673, 0.4208, 0.3751, 0.3307, 
                0.288, 0.2472, 0.2085, 0.1722, 0.1381, 
                0.1064, 0.077, 0.0471, 0.0223, 0.000,
time_step                = 60,
time_step_fract_num      = 0,
time_step_fract_den      = 1,
max_dom                  = 1,
e_we                     = 100,
e_sn                     = 100,
e_vert                   = 40,
p_top_requested          = 16992.0,
num_metgrid_levels       = 34,
num_metgrid_soil_levels  = 4,
dx                       = 9000,
dy                       = 9000,
grid_id                  = 1,
parent_id                = 1,
i_parent_start           = 1,
j_parent_start           = 1,
parent_grid_ratio        = 1,
parent_time_step_ratio   = 1,
feedback                 = 1,
smooth_option            = 0,
use_adaptive_time_step   = .true.,
step_to_output_time      = .true.,
target_cfl               = 1.2,
max_step_increase_pct    = 5,
starting_time_step       = -1,
max_time_step            = -1,
min_time_step            = -1,
adaptation_domain        = 1,
/

&physics                 
mp_physics               = 3,
ra_lw_physics            = 1,
ra_sw_physics            = 2,
radt                     = 10,
sf_sfclay_physics        = 1,
sf_surface_physics       = 2,
bl_pbl_physics           = 1,
bldt                     = 0,
cu_physics               = 3,
cudt                     = 5,
isfflx                   = 1,
ifsnow                   = 0,
icloud                   = 1,
surface_input_source     = 1,
num_soil_layers          = 4,
sf_urban_physics         = 0,
maxiens                  = 1,
maxens                   = 3,
maxens2                  = 3,
maxens3                  = 16,
ensdim                   = 144,
/

&fdda                    
/

&dynamics                
w_damping                = 0,
diff_opt                 = 1,
km_opt                   = 4,
diff_6th_opt             = 0,
diff_6th_factor          = 0.12,
base_temp                = 290.,
damp_opt                 = 0,
zdamp                    = 5000.,
dampcoef                 = 0.2,
khdif                    = 0,
kvdif                    = 0,
non_hydrostatic          = .true.,
chem_adv_opt             = 2,
moist_adv_opt            = 2,
scalar_adv_opt           = 2,
/

&bdy_control             
spec_bdy_width           = 5,
spec_zone                = 1,
relax_zone               = 4,
specified                = .true.,
nested                   = .false.,
/

&grib2                   
/

&namelist_quilt          
nio_tasks_per_group      = 0,
nio_groups               = 1,
/
                                                                                                                                                      
&chem
 kemit                               = 10,
 chem_opt = 0,
 bioemdt                             = 0,
 photdt                              = 0,
 chemdt                              = 10,
 io_style_emissions                  = 0,
 emiss_opt                           = 0,
 emiss_opt_vol = 0,
 emiss_ash_hgt                       = 5330.,
 chem_in_opt                         = 0,
 phot_opt                            = 0,
 gas_drydep_opt                      = 0,
 aer_drydep_opt                      = 1,
 bio_emiss_opt                       = 0,
 ne_area                             = 0,
 dust_opt                            = 1,
 dmsemis_opt                         = 0,
 seas_opt                            = 0,
 depo_fact                           = 0.25,
 gas_bc_opt                          = 0,
 gas_ic_opt                          = 0,
 aer_bc_opt                          = 1,
 aer_ic_opt                          = 1,
 gaschem_onoff                       = 0,
 aerchem_onoff                       = 1,
 wetscav_onoff                       = 0,
 cldchem_onoff                       = 0,
 vertmix_onoff                       = 1,
 chem_conv_tr                        = 0,
 conv_tr_wetscav                     = 0,
 conv_tr_aqchem                      = 0,
 biomass_burn_opt                    = 0,
 plumerisefire_frq                   = 30,
 have_bcs_chem                       = .false.,
 aer_ra_feedback                     = 0,
 aer_op_opt                          = 0,
 opt_pars_out                        = 0,
 diagnostic_chem                     = 0,
 /
